
<configuration>
   <input>
       <net-file value="circle.net.xml"/>
       <route-files value="circle.rou.xml"/>
       <gui-settings-file value="gui.settings.xml"/>
       <quit-on-end value="true"/>
   </input>
   <output>
        <summary-output value="sum.xml"/>
        <statistic-output  value="statistic.xml"/>
        <tripinfo-output value="tripinfo.xml"/>
   </output>
</configuration>
