<?xml version="1.0" encoding="UTF-8"?>
<routes>
    <vTypeDistribution id="typedist1">
<vType id="type_h"  accel="7.9" decel="7.5"  maxSpeed="17.00"  carFollowModel="IDM" tau="1.5" lcSpeedGain="3.1" lcAssertive="3.4" speedFactor="normc(1,0.1,0.2,2)" speedDev="0.4" color="128,128,128" probability="0.0">
            <param key="initialAwareness" value="1.1"/>
            <param key="errorTimeScaleCoefficient" value="100"/>
            <param key="errorNoiseIntensityCoefficient" value="0.5"/>
            <param key="speedDifferenceErrorCoefficient" value="1"/>
            <param key="headwayErrorCoefficient" value="4"/>
            <param key="speedDifferenceChangePerceptionThreshold" value="1"/>
            <param key="headwayChangePerceptionThreshold " value="1"/>
        </vType>
<vType id="type_a" accel="2.9" decel="3.5"  maxSpeed="17.00" carFollowModel="IDM" tau="1.5" lcSpeedGain="1" lcAssertive="1" speedFactor="normc(1,0.1,0.2,2)" speedDev="0.0" color="0,0,255" probability="1.0"/>
    </vTypeDistribution>

    <flow id="0" type="typedist1" begin="0" end= "7200" vehsPerHour="4000" departSpeed="random" departLane="free"  >
        <route edges="BtoC CtoD DtoE">
            <param key="has.ssm.device" value="true"/>
            <param key="device.ssm.measures" value="TTC"/>
            <param key="device.ssm.thresholds" value="5.0"/>
            <param key="device.ssm.range" value="50.0" />
            <param key="device.ssm.extratime" value="5.0" />
            <param key="device.ssm.file" value="../../output/ssm_v0.xml" />
            <param key="device.ssm.trajectories" value="true" />
            <param key="device.ssm.geo" value="false" />
            <param key="device.ssm.filter-edges.input-file" value="input_list.txt" />
        </route>
    </flow>
    <route id="route_0" edges="dtoD DtoE" color="yellow" />
        <vType id="human" accel="2.9" decel="7.5" sigma="0.8" length="5" maxSpeed="70">
            <param key="initialAwareness" value="1.3"/>
            <param key="errorTimeScaleCoefficient" value="100"/>
            <param key="errorNoiseIntensityCoefficient" value="0.5"/>
            <param key="speedDifferenceErrorCoefficient" value="1"/>
            <param key="headwayErrorCoefficient" value="4"/>
            <param key="speedDifferenceChangePerceptionThreshold" value="1"/>
            <param key="headwayChangePerceptionThreshold " value="1"/>
        </vType>
</routes>


